nat_ligand.pdb
 OpenBabel11292214043D

 70 72  0  0  1  0  0  0  0  0999 V2000
   25.7710   30.9250   37.8730 P   0  0  2  0  0  0  0  0  0  0  0  0
   24.7200   31.1010   38.8990 O   0  0  0  0  0  0  0  0  0  0  0  0
   26.6680   32.0930   37.7210 O   0  0  0  0  0  0  0  0  0  0  0  0
   25.0610   30.7130   36.4980 O   0  0  0  0  0  0  0  0  0  0  0  0
   23.7380   30.1490   36.4160 C   0  0  0  0  0  0  0  0  0  0  0  0
   23.0030   30.7240   37.0230 H   0  0  0  0  0  0  0  0  0  0  0  0
   23.7470   29.1010   36.7960 H   0  0  0  0  0  0  0  0  0  0  0  0
   23.2790   30.1240   34.9580 C   0  0  1  0  0  0  0  0  0  0  0  0
   22.4840   29.3670   34.7980 H   0  0  0  0  0  0  0  0  0  0  0  0
   22.7090   31.4070   34.5810 O   0  0  0  0  0  0  0  0  0  0  0  0
   22.9860   31.6380   33.2030 C   0  0  1  0  0  0  0  0  0  0  0  0
   21.9900   31.6430   32.7000 H   0  0  0  0  0  0  0  0  0  0  0  0
   23.6560   32.9420   32.9810 N   0  0  0  0  0  0  0  0  0  0  0  0
   24.4400   33.4950   33.9730 C   0  0  0  0  0  0  0  0  0  0  0  0
   24.5120   32.9160   34.9020 H   0  0  0  0  0  0  0  0  0  0  0  0
   25.0340   34.6860   33.8020 C   0  0  0  0  0  0  0  0  0  0  0  0
   25.6180   35.1670   34.5850 H   0  0  0  0  0  0  0  0  0  0  0  0
   23.5840   33.5530   31.7300 C   0  0  0  0  0  0  0  0  0  0  0  0
   22.9700   32.9860   30.8130 O   0  0  0  0  0  0  0  0  0  0  0  0
   24.1720   34.7560   31.5490 N   0  0  0  0  0  0  0  0  0  0  0  0
   24.8460   35.3410   32.5470 C   0  0  0  0  0  0  0  0  0  0  0  0
   25.2840   36.5850   32.3580 N   0  0  0  0  0  0  0  0  0  0  0  0
   24.9300   36.9990   31.5190 H   0  0  0  0  0  0  0  0  0  0  0  0
   25.4940   37.1780   33.1320 H   0  0  0  0  0  0  0  0  0  0  0  0
   23.8000   30.4650   32.6590 C   0  0  2  0  0  0  0  0  0  0  0  0
   24.6110   30.8020   31.9770 H   0  0  0  0  0  0  0  0  0  0  0  0
   22.9770   29.5330   31.9870 O   0  0  0  0  0  0  0  0  0  0  0  0
   23.5000   28.7190   31.9150 H   0  0  0  0  0  0  0  0  0  0  0  0
   24.3930   29.8830   33.9360 C   0  0  2  0  0  0  0  0  0  0  0  0
   25.3020   30.4630   34.2030 H   0  0  0  0  0  0  0  0  0  0  0  0
   24.6830   28.4800   33.8790 O   0  0  0  0  0  0  0  0  0  0  0  0
   25.0740   28.1950   34.7360 H   0  0  0  0  0  0  0  0  0  0  0  0
   26.0240   27.5070   37.3500 C   0  0  0  0  0  0  0  0  0  0  0  0
   25.5380   27.3650   36.1910 O   0  0  0  0  0  0  0  0  0  0  0  0
   25.6760   26.8840   38.3920 O   0  0  0  0  0  0  0  0  0  0  0  0
   27.2050   28.5600   37.4890 C   0  0  1  0  0  0  0  0  0  0  0  0
   26.5970   29.6510   38.1890 O   0  0  0  0  0  0  0  0  0  0  0  0
   29.2090   29.3970   38.6710 C   0  0  2  0  0  0  0  0  0  0  0  0
   28.7170   30.3290   39.0400 H   0  0  0  0  0  0  0  0  0  0  0  0
   28.1880   28.3670   38.5530 O   0  0  0  0  0  0  0  0  0  0  0  0
   27.8100   29.0490   36.1540 C   0  0  0  0  0  0  0  0  0  0  0  0
   27.0020   29.4300   35.4960 H   0  0  0  0  0  0  0  0  0  0  0  0
   28.2160   28.1660   35.6180 H   0  0  0  0  0  0  0  0  0  0  0  0
   28.8830   30.0820   36.2620 C   0  0  2  0  0  0  0  0  0  0  0  0
   28.4400   31.0770   36.4860 H   0  0  0  0  0  0  0  0  0  0  0  0
   29.5200   30.1830   34.9990 O   0  0  0  0  0  0  0  0  0  0  0  0
   30.4790   30.2260   35.1500 H   0  0  0  0  0  0  0  0  0  0  0  0
   29.8890   29.7640   37.3430 C   0  0  1  0  0  0  0  0  0  0  0  0
   30.4440   28.8540   37.0070 H   0  0  0  0  0  0  0  0  0  0  0  0
   30.8350   30.8510   37.5430 N   0  0  0  0  0  0  0  0  0  0  0  0
   30.6320   31.4820   38.2830 H   0  0  0  0  0  0  0  0  0  0  0  0
   31.9250   31.0610   36.7980 C   0  0  0  0  0  0  0  0  0  0  0  0
   32.2050   30.3650   35.8300 O   0  0  0  0  0  0  0  0  0  0  0  0
   32.7910   32.2260   37.2000 C   0  0  0  0  0  0  0  0  0  0  0  0
   32.2910   33.1800   36.9310 H   0  0  0  0  0  0  0  0  0  0  0  0
   32.9750   32.2070   38.2940 H   0  0  0  0  0  0  0  0  0  0  0  0
   33.7620   32.1620   36.6690 H   0  0  0  0  0  0  0  0  0  0  0  0
   30.2290   29.0360   39.7750 C   0  0  2  0  0  0  0  0  0  0  0  0
   30.7230   29.9860   40.0880 H   0  0  0  0  0  0  0  0  0  0  0  0
   31.2750   28.1660   39.3100 O   0  0  0  0  0  0  0  0  0  0  0  0
   30.9500   27.6980   38.5240 H   0  0  0  0  0  0  0  0  0  0  0  0
   29.6250   28.4350   41.0370 C   0  0  2  0  0  0  0  0  0  0  0  0
   29.2480   27.4240   40.7670 H   0  0  0  0  0  0  0  0  0  0  0  0
   28.5060   29.2020   41.5000 O   0  0  0  0  0  0  0  0  0  0  0  0
   27.7430   28.6720   41.2120 H   0  0  0  0  0  0  0  0  0  0  0  0
   30.6350   28.2550   42.1670 C   0  0  0  0  0  0  0  0  0  0  0  0
   30.6800   29.1780   42.7870 H   0  0  0  0  0  0  0  0  0  0  0  0
   31.6560   28.0860   41.7600 H   0  0  0  0  0  0  0  0  0  0  0  0
   30.3020   27.1360   43.0020 O   0  0  0  0  0  0  0  0  0  0  0  0
   30.8660   26.3900   42.7560 H   0  0  0  0  0  0  0  0  0  0  0  0
  1  3  2  6  0  0  0
  1 37  1  0  0  0  0
  1  2  1  0  0  0  0
  4  1  1  0  0  0  0
  5  4  1  0  0  0  0
  5  7  1  0  0  0  0
  5  6  1  0  0  0  0
  8 29  1  6  0  0  0
  8  5  1  0  0  0  0
  9  8  1  0  0  0  0
 10  8  1  0  0  0  0
 11 25  1  6  0  0  0
 11 10  1  0  0  0  0
 12 11  1  0  0  0  0
 13 11  1  0  0  0  0
 13 14  1  0  0  0  0
 14 15  1  0  0  0  0
 16 14  2  0  0  0  0
 16 17  1  0  0  0  0
 18 13  1  0  0  0  0
 19 18  2  0  0  0  0
 20 18  1  0  0  0  0
 20 21  2  0  0  0  0
 21 16  1  0  0  0  0
 22 21  1  0  0  0  0
 22 24  1  0  0  0  0
 23 22  1  0  0  0  0
 25 29  1  1  0  0  0
 26 25  1  0  0  0  0
 27 25  1  0  0  0  0
 28 27  1  0  0  0  0
 29 30  1  1  0  0  0
 31 29  1  0  0  0  0
 31 32  1  0  0  0  0
 33 35  1  0  0  0  0
 34 33  2  0  0  0  0
 36 33  1  6  0  0  0
 36 37  1  0  0  0  0
 36 40  1  0  0  0  0
 38 48  1  6  0  0  0
 38 39  1  0  0  0  0
 38 58  1  0  0  0  0
 40 38  1  0  0  0  0
 41 44  1  0  0  0  0
 41 36  1  0  0  0  0
 42 41  1  0  0  0  0
 43 41  1  0  0  0  0
 44 45  1  0  0  0  0
 44 48  1  1  0  0  0
 46 47  1  0  0  0  0
 46 44  1  0  0  0  0
 48 49  1  6  0  0  0
 48 50  1  0  0  0  0
 50 51  1  0  0  0  0
 52 54  1  0  0  0  0
 52 50  1  0  0  0  0
 53 52  2  0  0  0  0
 54 56  1  0  0  0  0
 55 54  1  0  0  0  0
 57 54  1  0  0  0  0
 58 59  1  1  0  0  0
 58 62  1  0  0  0  0
 60 58  1  0  0  0  0
 61 60  1  0  0  0  0
 62 63  1  6  0  0  0
 62 64  1  0  0  0  0
 62 66  1  0  0  0  0
 65 64  1  0  0  0  0
 66 67  1  0  0  0  0
 66 69  1  0  0  0  0
 68 66  1  0  0  0  0
 70 69  1  0  0  0  0
M  END
$$$$
